<routes>

    <vType id="train" accel="0.5" decel="1.0" length="15" maxSpeed="2" vClass="rail" guiShape="rail" width="4" color="1,0,0"/>
    
    <!-- edge means starting and ending of a train -->
    
    <route id="routeAB" edges="E36 E37"/>
    <route id="routeBA" edges="-E37 -E36"/>
    <!-- <route id="routeBA" edges="E20 E18 E16 E13 E14 E10 E0"/> -->
    <!-- <route id="routeCA" edges="-E9 -E8 -E7 -E3 -E2 -E1"/> -->
    <!-- <route id="routeBA" edges="-E6-E5 -E4 -E3 -E2 -E1"/> -->
    <!-- <route id="routeAC" edges="E1 E2 E3 E6 E7"/> -->

    <vehicle id="train1" type="train" route="routeAB" depart="0"/>
    <vehicle id="train2" type="train" route="routeBA" depart="10"/>
    <!-- <vehicle id="train3" type="train" route="routeBA" depart="10"/> -->
    <!-- <vehicle id="train4" type="train" route="routeAC" depart="40"/> -->

</routes>