<?xml version="1.0" encoding="UTF-8"?>

<!-- generated on 2026-03-18T13:39:33.295668+01:00 by Eclipse SUMO netedit 1.25.0
<neteditConfiguration xmlns:xsi="http://www.w3.org/2001/XMLSchema-instance" xsi:noNamespaceSchemaLocation="http://sumo.dlr.de/xsd/neteditConfiguration.xsd">

    <input>
        <sumo-net-file value="D:\Master Thesis\model_railway\network\rail.net.xml"/>
    </input>

    <output>
        <output-file value="D:\Master Thesis\model_railway\network\rail.net.xml"/>
    </output>

    <processing>
        <geometry.min-radius.fix.railways value="false"/>
        <geometry.avoid-overlap value="false"/>
        <geometry.max-grade.fix value="false"/>
        <offset.disable-normalization value="true"/>
        <lefthand value="0"/>
    </processing>

    <junctions>
        <no-turnarounds value="true"/>
        <junctions.corner-detail value="5"/>
        <junctions.limit-turn-speed value="5.50"/>
        <rectangular-lane-cut value="0"/>
    </junctions>

    <pedestrian>
        <walkingareas value="0"/>
    </pedestrian>

</neteditConfiguration>
-->

<net version="1.20" junctionCornerDetail="5" limitTurnSpeed="5.50" avoidOverlap="0" xmlns:xsi="http://www.w3.org/2001/XMLSchema-instance" xsi:noNamespaceSchemaLocation="http://sumo.dlr.de/xsd/net_file.xsd">

    <location netOffset="0.00,0.00" convBoundary="-1655.94,1994.91,-1335.30,2123.48" origBoundary="-10000000000.00,-10000000000.00,10000000000.00,10000000000.00" projParameter="!"/>

    <type id="edgeType_0"/>

    <edge id=":B1_0" function="internal">
        <lane id=":B1_0_0" index="0" allow="rail" speed="13.89" length="0.31" shape="-1596.14,2067.78 -1596.45,2067.78"/>
    </edge>
    <edge id=":B1_1" function="internal">
        <lane id=":B1_1_0" index="0" allow="rail" speed="13.89" length="0.28" shape="-1596.46,2064.58 -1596.18,2064.58"/>
    </edge>
    <edge id=":B2_0" function="internal">
        <lane id=":B2_0_0" index="0" allow="rail" speed="13.89" length="0.31" shape="-1539.68,2067.16 -1540.00,2067.16"/>
    </edge>
    <edge id=":B2_1" function="internal">
        <lane id=":B2_1_0" index="0" allow="rail" speed="13.89" length="0.26" shape="-1540.03,2063.96 -1539.77,2063.96"/>
    </edge>
    <edge id=":B3_0" function="internal">
        <lane id=":B3_0_0" index="0" allow="rail" speed="13.89" length="0.31" shape="-1438.02,2086.62 -1438.31,2086.51"/>
    </edge>
    <edge id=":B3_1" function="internal">
        <lane id=":B3_1_0" index="0" allow="rail" speed="13.89" length="0.22" shape="-1437.09,2083.55 -1436.89,2083.63"/>
    </edge>
    <edge id=":B4_0" function="internal">
        <lane id=":B4_0_0" index="0" allow="rail" speed="13.89" length="0.31" shape="-1384.14,2106.98 -1384.43,2106.87"/>
    </edge>
    <edge id=":B4_1" function="internal">
        <lane id=":B4_1_0" index="0" allow="rail" speed="13.89" length="0.29" shape="-1383.29,2103.88 -1383.02,2103.98"/>
    </edge>
    <edge id=":B5_0" function="internal">
        <lane id=":B5_0_0" index="0" allow="rail" speed="13.89" length="0.10" shape="-1443.57,2043.62 -1443.57,2043.62"/>
    </edge>
    <edge id=":B5_1" function="internal">
        <lane id=":B5_1_0" index="0" allow="rail" speed="13.89" length="0.10" shape="-1444.99,2040.76 -1444.99,2040.76"/>
    </edge>
    <edge id=":B6_0" function="internal">
        <lane id=":B6_0_0" index="0" allow="rail" speed="13.89" length="0.30" shape="-1395.39,2019.78 -1395.65,2019.91"/>
    </edge>
    <edge id=":B6_1" function="internal">
        <lane id=":B6_1_0" index="0" allow="rail" speed="13.89" length="0.30" shape="-1397.07,2017.04 -1396.80,2016.91"/>
    </edge>
    <edge id=":J1_0" function="internal">
        <lane id=":J1_0_0" index="0" allow="rail" speed="13.89" length="10.14" shape="-1481.30,2068.89 -1484.03,2067.60 -1485.91,2066.60 -1487.86,2065.98 -1490.80,2065.82"/>
    </edge>
    <edge id=":J1_1" function="internal">
        <lane id=":J1_1_0" index="0" allow="rail" speed="13.89" length="11.45" shape="-1480.24,2061.78 -1483.08,2063.33 -1485.32,2064.58 -1487.67,2065.44 -1490.80,2065.82"/>
    </edge>
    <edge id=":J1_2" function="internal">
        <lane id=":J1_2_0" index="0" allow="rail" speed="13.89" length="10.11" shape="-1490.89,2062.62 -1487.97,2062.30 -1486.08,2061.55 -1484.28,2060.41 -1481.66,2058.92"/>
    </edge>
    <edge id=":J1_3" function="internal">
        <lane id=":J1_3_0" index="0" allow="rail" speed="13.89" length="11.43" shape="-1490.89,2062.62 -1487.74,2062.81 -1485.35,2063.52 -1483.03,2064.60 -1480.09,2065.93"/>
    </edge>

    <edge id="-E1" from="B1" to="A" priority="-1">
        <lane id="-E1_0" index="0" allow="rail" speed="13.89" length="59.48" shape="-1596.45,2067.78 -1655.93,2067.97"/>
    </edge>
    <edge id="-E2" from="B2" to="B1" priority="-1">
        <lane id="-E2_0" index="0" allow="rail" speed="13.89" length="56.15" shape="-1540.00,2067.16 -1596.14,2067.78"/>
    </edge>
    <edge id="-E3" from="J1" to="B2" priority="-1">
        <lane id="-E3_0" index="0" allow="rail" speed="13.89" length="48.90" shape="-1490.80,2065.82 -1539.68,2067.16"/>
    </edge>
    <edge id="-E4" from="B3" to="J1" priority="-1">
        <lane id="-E4_0" index="0" allow="rail" speed="13.89" length="46.47" shape="-1438.31,2086.51 -1481.30,2068.89"/>
    </edge>
    <edge id="-E5" from="B4" to="B3" priority="-1">
        <lane id="-E5_0" index="0" allow="rail" speed="13.89" length="57.30" shape="-1384.43,2106.87 -1438.02,2086.62"/>
    </edge>
    <edge id="-E6" from="B" to="B4" priority="-1">
        <lane id="-E6_0" index="0" allow="rail" speed="13.89" length="51.53" shape="-1335.86,2124.98 -1384.14,2106.98"/>
    </edge>
    <edge id="-E7" from="B5" to="J1" priority="-1">
        <lane id="-E7_0" index="0" allow="rail" speed="13.89" length="40.92" shape="-1443.57,2043.62 -1480.24,2061.78"/>
    </edge>
    <edge id="-E8" from="B6" to="B5" priority="-1">
        <lane id="-E8_0" index="0" allow="rail" speed="13.89" length="53.46" shape="-1395.65,2019.91 -1443.57,2043.62"/>
    </edge>
    <edge id="-E9" from="C" to="B6" priority="-1">
        <lane id="-E9_0" index="0" allow="rail" speed="13.89" length="53.08" shape="-1347.76,1996.35 -1395.39,2019.78"/>
    </edge>
    <edge id="E1" from="A" to="B1" priority="-1">
        <lane id="E1_0" index="0" allow="rail" speed="13.89" length="59.48" shape="-1655.95,2064.77 -1596.46,2064.58"/>
    </edge>
    <edge id="E2" from="B1" to="B2" priority="-1">
        <lane id="E2_0" index="0" allow="rail" speed="13.89" length="56.15" shape="-1596.18,2064.58 -1540.03,2063.96"/>
    </edge>
    <edge id="E3" from="B2" to="J1" priority="-1">
        <lane id="E3_0" index="0" allow="rail" speed="13.89" length="48.90" shape="-1539.77,2063.96 -1490.89,2062.62"/>
    </edge>
    <edge id="E4" from="J1" to="B3" priority="-1">
        <lane id="E4_0" index="0" allow="rail" speed="13.89" length="46.47" shape="-1480.09,2065.93 -1437.09,2083.55"/>
    </edge>
    <edge id="E5" from="B3" to="B4" priority="-1">
        <lane id="E5_0" index="0" allow="rail" speed="13.89" length="57.30" shape="-1436.89,2083.63 -1383.29,2103.88"/>
    </edge>
    <edge id="E6" from="B4" to="B" priority="-1">
        <lane id="E6_0" index="0" allow="rail" speed="13.89" length="51.53" shape="-1383.02,2103.98 -1334.74,2121.98"/>
    </edge>
    <edge id="E7" from="J1" to="B5" priority="-1">
        <lane id="E7_0" index="0" allow="rail" speed="13.89" length="40.92" shape="-1481.66,2058.92 -1444.99,2040.76"/>
    </edge>
    <edge id="E8" from="B5" to="B6" priority="-1">
        <lane id="E8_0" index="0" allow="rail" speed="13.89" length="53.46" shape="-1444.99,2040.76 -1397.07,2017.04"/>
    </edge>
    <edge id="E9" from="B6" to="C" priority="-1">
        <lane id="E9_0" index="0" allow="rail" speed="13.89" length="53.08" shape="-1396.80,2016.91 -1349.18,1993.47"/>
    </edge>

    <tlLogic id="J1" type="static" programID="0" offset="0">
        <phase duration="27" state="rrrr"/>
        <phase duration="3"  state="yrrr"/>
        <phase duration="27" state="rGrr"/>
        <phase duration="3"  state="ryrr"/>
        <phase duration="27" state="rrGG"/>
        <phase duration="3"  state="rryy"/>
    </tlLogic>
    <tlLogic id="TLS1" type="static" programID="0" offset="0">
        <phase duration="82" state="GG"/>
        <phase duration="3"  state="yy"/>
        <phase duration="5"  state="rr"/>
    </tlLogic>
    <tlLogic id="TLS2" type="static" programID="0" offset="0">
        <phase duration="82" state="GG"/>
        <phase duration="3"  state="yy"/>
        <phase duration="5"  state="rr"/>
    </tlLogic>
    <tlLogic id="TLS3" type="static" programID="0" offset="0">
        <phase duration="82" state="GG"/>
        <phase duration="3"  state="yy"/>
        <phase duration="5"  state="rr"/>
    </tlLogic>
    <tlLogic id="TLS4" type="static" programID="0" offset="0">
        <phase duration="82" state="GG"/>
        <phase duration="3"  state="yy"/>
        <phase duration="5"  state="rr"/>
    </tlLogic>
    <tlLogic id="TLS5" type="static" programID="0" offset="0">
        <phase duration="82" state="GG"/>
        <phase duration="3"  state="yy"/>
        <phase duration="5"  state="rr"/>
    </tlLogic>
    <tlLogic id="TLS6" type="static" programID="0" offset="0">
        <phase duration="82" state="GG"/>
        <phase duration="3"  state="yy"/>
        <phase duration="5"  state="rr"/>
    </tlLogic>

    <junction id="A" type="dead_end" x="-1655.94" y="2066.37" incLanes="-E1_0" intLanes="" shape="-1655.94,2066.37 -1655.93,2069.57 -1655.94,2066.37"/>
    <junction id="B" type="dead_end" x="-1335.30" y="2123.48" incLanes="E6_0" intLanes="" shape="-1335.30,2123.48 -1334.18,2120.48 -1335.30,2123.48"/>
    <junction id="B1" type="traffic_light" x="-1596.31" y="2066.18" incLanes="-E2_0 E1_0" intLanes=":B1_0_0 :B1_1_0" shape="-1596.13,2069.38 -1596.20,2062.98 -1596.47,2062.98 -1596.45,2069.38">
        <request index="0" response="00" foes="00" cont="0"/>
        <request index="1" response="00" foes="00" cont="0"/>
    </junction>
    <junction id="B2" type="traffic_light" x="-1539.87" y="2065.56" incLanes="-E3_0 E2_0" intLanes=":B2_0_0 :B2_1_0" shape="-1539.64,2068.75 -1539.81,2062.36 -1540.05,2062.36 -1539.98,2068.76">
        <request index="0" response="00" foes="00" cont="0"/>
        <request index="1" response="00" foes="00" cont="0"/>
    </junction>
    <junction id="B3" type="traffic_light" x="-1437.58" y="2085.08" incLanes="-E5_0 E4_0" intLanes=":B3_0_0 :B3_1_0" shape="-1438.59,2088.12 -1436.33,2082.13 -1436.49,2082.07 -1438.91,2087.99">
        <request index="0" response="00" foes="00" cont="0"/>
        <request index="1" response="00" foes="00" cont="0"/>
    </junction>
    <junction id="B4" type="traffic_light" x="-1383.72" y="2105.43" incLanes="-E6_0 E5_0" intLanes=":B4_0_0 :B4_1_0" shape="-1384.70,2108.48 -1382.46,2102.48 -1382.73,2102.38 -1384.99,2108.37">
        <request index="0" response="00" foes="00" cont="0"/>
        <request index="1" response="00" foes="00" cont="0"/>
    </junction>
    <junction id="B5" type="traffic_light" x="-1444.28" y="2042.19" incLanes="-E8_0 E7_0" intLanes=":B5_0_0 :B5_1_0" shape="-1442.86,2045.06 -1445.70,2039.32 -1442.86,2045.06">
        <request index="0" response="00" foes="00" cont="0"/>
        <request index="1" response="00" foes="00" cont="0"/>
    </junction>
    <junction id="B6" type="traffic_light" x="-1396.23" y="2018.41" incLanes="-E9_0 E8_0" intLanes=":B6_0_0 :B6_1_0" shape="-1394.68,2021.22 -1397.51,2015.47 -1397.78,2015.61 -1394.94,2021.34">
        <request index="0" response="00" foes="00" cont="0"/>
        <request index="1" response="00" foes="00" cont="0"/>
    </junction>
    <junction id="C" type="dead_end" x="-1348.47" y="1994.91" incLanes="E9_0" intLanes="" shape="-1348.47,1994.91 -1349.88,1992.04 -1348.47,1994.91"/>
    <junction id="J1" type="traffic_light" x="-1488.64" y="2064.16" incLanes="-E4_0 -E7_0 E3_0" intLanes=":J1_0_0 :J1_1_0 :J1_2_0 :J1_3_0" shape="-1481.91,2070.38 -1479.48,2064.45 -1480.11,2064.06 -1480.19,2063.86 -1480.12,2063.65 -1479.90,2063.44 -1479.53,2063.22 -1482.37,2057.48 -1484.12,2058.45 -1485.40,2059.29 -1486.47,2059.98 -1487.57,2060.50 -1488.98,2060.86 -1490.93,2061.02 -1490.75,2067.42 -1487.35,2067.74 -1486.20,2068.19 -1485.09,2068.79 -1483.74,2069.53">
        <request index="0" response="0000" foes="0010" cont="0"/>
        <request index="1" response="1001" foes="1001" cont="0"/>
        <request index="2" response="0000" foes="0000" cont="0"/>
        <request index="3" response="0000" foes="0010" cont="0"/>
    </junction>

    <connection from="-E2" to="-E1" fromLane="0" toLane="0" via=":B1_0_0" tl="TLS1" linkIndex="0" dir="s" state="O"/>
    <connection from="-E3" to="-E2" fromLane="0" toLane="0" via=":B2_0_0" tl="TLS2" linkIndex="0" dir="s" state="O"/>
    <connection from="-E4" to="-E3" fromLane="0" toLane="0" via=":J1_0_0" tl="J1" linkIndex="0" dir="s" state="O"/>
    <connection from="-E5" to="-E4" fromLane="0" toLane="0" via=":B3_0_0" tl="TLS3" linkIndex="0" dir="s" state="O"/>
    <connection from="-E6" to="-E5" fromLane="0" toLane="0" via=":B4_0_0" tl="TLS4" linkIndex="0" dir="s" state="O"/>
    <connection from="-E7" to="-E3" fromLane="0" toLane="0" via=":J1_1_0" tl="J1" linkIndex="1" dir="s" state="o"/>
    <connection from="-E8" to="-E7" fromLane="0" toLane="0" via=":B5_0_0" tl="TLS5" linkIndex="0" dir="s" state="O"/>
    <connection from="-E9" to="-E8" fromLane="0" toLane="0" via=":B6_0_0" tl="TLS6" linkIndex="0" dir="s" state="O"/>
    <connection from="E1" to="E2" fromLane="0" toLane="0" via=":B1_1_0" tl="TLS1" linkIndex="1" dir="s" state="O"/>
    <connection from="E2" to="E3" fromLane="0" toLane="0" via=":B2_1_0" tl="TLS2" linkIndex="1" dir="s" state="O"/>
    <connection from="E3" to="E7" fromLane="0" toLane="0" via=":J1_2_0" tl="J1" linkIndex="2" dir="R" state="O"/>
    <connection from="E3" to="E4" fromLane="0" toLane="0" via=":J1_3_0" tl="J1" linkIndex="3" dir="s" state="O"/>
    <connection from="E4" to="E5" fromLane="0" toLane="0" via=":B3_1_0" tl="TLS3" linkIndex="1" dir="s" state="O"/>
    <connection from="E5" to="E6" fromLane="0" toLane="0" via=":B4_1_0" tl="TLS4" linkIndex="1" dir="s" state="O"/>
    <connection from="E7" to="E8" fromLane="0" toLane="0" via=":B5_1_0" tl="TLS5" linkIndex="1" dir="s" state="O"/>
    <connection from="E8" to="E9" fromLane="0" toLane="0" via=":B6_1_0" tl="TLS6" linkIndex="1" dir="s" state="O"/>

    <connection from=":B1_0" to="-E1" fromLane="0" toLane="0" dir="s" state="M"/>
    <connection from=":B1_1" to="E2" fromLane="0" toLane="0" dir="s" state="M"/>
    <connection from=":B2_0" to="-E2" fromLane="0" toLane="0" dir="s" state="M"/>
    <connection from=":B2_1" to="E3" fromLane="0" toLane="0" dir="s" state="M"/>
    <connection from=":B3_0" to="-E4" fromLane="0" toLane="0" dir="s" state="M"/>
    <connection from=":B3_1" to="E5" fromLane="0" toLane="0" dir="s" state="M"/>
    <connection from=":B4_0" to="-E5" fromLane="0" toLane="0" dir="s" state="M"/>
    <connection from=":B4_1" to="E6" fromLane="0" toLane="0" dir="s" state="M"/>
    <connection from=":B5_0" to="-E7" fromLane="0" toLane="0" dir="s" state="M"/>
    <connection from=":B5_1" to="E8" fromLane="0" toLane="0" dir="s" state="M"/>
    <connection from=":B6_0" to="-E8" fromLane="0" toLane="0" dir="s" state="M"/>
    <connection from=":B6_1" to="E9" fromLane="0" toLane="0" dir="s" state="M"/>
    <connection from=":J1_0" to="-E3" fromLane="0" toLane="0" dir="s" state="M"/>
    <connection from=":J1_1" to="-E3" fromLane="0" toLane="0" dir="s" state="M"/>
    <connection from=":J1_2" to="E7" fromLane="0" toLane="0" dir="R" state="M"/>
    <connection from=":J1_3" to="E4" fromLane="0" toLane="0" dir="s" state="M"/>

</net>
