<?xml version="1.0" encoding="UTF-8"?>

<!-- generated on 2026-03-17T11:40:40.653519+01:00 by Eclipse SUMO netedit 1.25.0
<neteditConfiguration xmlns:xsi="http://www.w3.org/2001/XMLSchema-instance" xsi:noNamespaceSchemaLocation="http://sumo.dlr.de/xsd/neteditConfiguration.xsd">

    <input>
        <sumo-net-file value="D:\Master Thesis\sumo\network\rail.net.xml"/>
    </input>

    <output>
        <output-file value="D:\Master Thesis\sumo\network\rail.net.xml"/>
    </output>

    <processing>
        <geometry.min-radius.fix.railways value="false"/>
        <geometry.avoid-overlap value="false"/>
        <geometry.max-grade.fix value="false"/>
        <offset.disable-normalization value="true"/>
        <lefthand value="0"/>
    </processing>

    <junctions>
        <no-turnarounds value="true"/>
        <junctions.corner-detail value="5"/>
        <junctions.limit-turn-speed value="5.50"/>
        <rectangular-lane-cut value="0"/>
    </junctions>

    <pedestrian>
        <walkingareas value="0"/>
    </pedestrian>

</neteditConfiguration>
-->

<net version="1.20" junctionCornerDetail="5" limitTurnSpeed="5.50" avoidOverlap="0" xmlns:xsi="http://www.w3.org/2001/XMLSchema-instance" xsi:noNamespaceSchemaLocation="http://sumo.dlr.de/xsd/net_file.xsd">

    <location netOffset="0.00,0.00" convBoundary="-1530.59,2031.73,-1353.10,2069.52" origBoundary="-10000000000.00,-10000000000.00,10000000000.00,10000000000.00" projParameter="!"/>

    <type id="edgeType_0"/>

    <edge id=":J1_0" function="internal">
        <lane id=":J1_0_0" index="0" allow="rail" speed="13.89" length="21.24" shape="-1433.10,2070.84 -1454.34,2071.11"/>
    </edge>
    <edge id=":J1_1" function="internal">
        <lane id=":J1_1_0" index="0" allow="rail" speed="6.27" length="13.78" shape="-1433.10,2070.84 -1436.47,2069.63 -1438.08,2066.74 -1437.69,2063.45 -1435.03,2061.05"/>
    </edge>
    <edge id=":J1_2" function="internal">
        <lane id=":J1_2_0" index="0" allow="rail" speed="5.67" length="10.95" shape="-1433.86,2064.03 -1437.41,2065.67 -1438.48,2066.81 -1437.05,2067.47 -1433.15,2067.64"/>
    </edge>
    <edge id=":J1_3" function="internal">
        <lane id=":J1_3_0" index="0" allow="rail" speed="13.89" length="21.75" shape="-1433.86,2064.03 -1438.32,2065.91 -1443.97,2068.26 -1449.69,2070.27 -1454.34,2071.11"/>
    </edge>
    <edge id=":J1_4" function="internal">
        <lane id=":J1_4_0" index="0" allow="rail" speed="13.89" length="20.56" shape="-1454.33,2067.91 -1449.86,2067.11 -1444.55,2065.17 -1439.31,2062.90 -1435.03,2061.05"/>
    </edge>
    <edge id=":J1_5" function="internal">
        <lane id=":J1_5_0" index="0" allow="rail" speed="13.89" length="21.18" shape="-1454.33,2067.91 -1433.15,2067.64"/>
    </edge>

    <edge id="-E36" from="J1" to="S1" priority="-1">
        <lane id="-E36_0" index="0" allow="rail" speed="13.89" length="76.26" shape="-1454.34,2071.11 -1530.60,2070.70"/>
    </edge>
    <edge id="-E37" from="S2" to="J1" priority="-1">
        <lane id="-E37_0" index="0" allow="rail" speed="13.89" length="80.03" shape="-1353.08,2069.68 -1433.10,2070.84"/>
    </edge>
    <edge id="-E38" from="S3" to="J1" priority="-1">
        <lane id="-E38_0" index="0" allow="rail" speed="13.89" length="84.26" shape="-1355.43,2033.22 -1433.86,2064.03"/>
    </edge>
    <edge id="E36" from="S1" to="J1" priority="-1">
        <lane id="E36_0" index="0" allow="rail" speed="13.89" length="76.26" shape="-1530.58,2067.50 -1454.33,2067.91"/>
    </edge>
    <edge id="E37" from="J1" to="S2" priority="-1">
        <lane id="E37_0" index="0" allow="rail" speed="13.89" length="80.03" shape="-1433.15,2067.64 -1353.12,2066.48"/>
    </edge>
    <edge id="E38" from="J1" to="S3" priority="-1">
        <lane id="E38_0" index="0" allow="rail" speed="13.89" length="84.26" shape="-1435.03,2061.05 -1356.61,2030.24"/>
    </edge>

    <junction id="J1" type="traffic_light" x="-1452.22" y="2069.52" incLanes="-E37_0 -E38_0 E36_0" intLanes=":J1_0_0 :J1_1_0 :J1_2_0 :J1_3_0 :J1_4_0 :J1_5_0" shape="-1433.08,2072.44 -1433.17,2066.04 -1433.28,2065.52 -1435.62,2059.56 -1439.52,2061.33 -1442.37,2062.94 -1444.71,2064.32 -1447.11,2065.39 -1450.12,2066.08 -1454.32,2066.31 -1454.35,2072.71">
        <request index="0" response="000000" foes="001000" cont="0"/>
        <request index="1" response="110000" foes="111000" cont="0"/>
        <request index="2" response="100000" foes="100000" cont="0"/>
        <request index="3" response="100011" foes="100011" cont="0"/>
        <request index="4" response="000000" foes="000010" cont="0"/>
        <request index="5" response="000000" foes="001110" cont="0"/>
    </junction>
    <junction id="S1" type="dead_end" x="-1530.59" y="2069.10" incLanes="-E36_0" intLanes="" shape="-1530.59,2069.10 -1530.61,2072.30 -1530.59,2069.10"/>
    <junction id="S2" type="dead_end" x="-1353.10" y="2068.08" incLanes="E37_0" intLanes="" shape="-1353.10,2068.08 -1353.15,2064.88 -1353.10,2068.08"/>
    <junction id="S3" type="dead_end" x="-1356.02" y="2031.73" incLanes="E38_0" intLanes="" shape="-1356.02,2031.73 -1357.19,2028.75 -1356.02,2031.73"/>

    <connection from="-E37" to="-E36" fromLane="0" toLane="0" via=":J1_0_0" dir="s" state="M"/>
    <connection from="-E37" to="E38" fromLane="0" toLane="0" via=":J1_1_0" dir="l" state="M"/>
    <connection from="-E38" to="E37" fromLane="0" toLane="0" via=":J1_2_0" dir="r" state="M"/>
    <connection from="-E38" to="-E36" fromLane="0" toLane="0" via=":J1_3_0" dir="s" state="M"/>
    <connection from="E36" to="E38" fromLane="0" toLane="0" via=":J1_4_0" dir="R" state="M"/>
    <connection from="E36" to="E37" fromLane="0" toLane="0" via=":J1_5_0" dir="s" state="M"/>

    <connection from=":J1_0" to="-E36" fromLane="0" toLane="0" dir="s" state="M"/>
    <connection from=":J1_1" to="E38" fromLane="0" toLane="0" dir="l" state="M"/>
    <connection from=":J1_2" to="E37" fromLane="0" toLane="0" dir="r" state="M"/>
    <connection from=":J1_3" to="-E36" fromLane="0" toLane="0" dir="s" state="M"/>
    <connection from=":J1_4" to="E38" fromLane="0" toLane="0" dir="R" state="M"/>
    <connection from=":J1_5" to="E37" fromLane="0" toLane="0" dir="s" state="M"/>

</net>
