<configuration>

<input>
    <net-file value="../network/rail.net.xml"/>
    <route-files value="../routes/rail.rou.xml"/>
</input>

<time>
    <begin value="0"/>
    <end value="300"/>
</time>

</configuration>